/*--------------------------------*- C++ -*----------------------------------*\
| =========                 |                                                 |
| \\      /  F ield         | OpenFOAM: The Open Source CFD Toolbox           |
|  \\    /   O peration     | Version:  v1606+                                |
|   \\  /    A nd           | Web:      www.OpenFOAM.com                      |
|    \\/     M anipulation  |                                                 |
\*---------------------------------------------------------------------------*/
FoamFile
{
    version     2.0;
    format      ascii;
    class       volScalarField;
    location    "0";
    object      magT;
}
// * * * * * * * * * * * * * * * * * * * * * * * * * * * * * * * * * * * * * //

dimensions      [0 0 0 1 0 0 0];

internalField   uniform 293;

boundaryField
{
    topWall
    {
        type            calculated;
        value           uniform 300;
    }
    leftWall
    {
        type            calculated;
        value           uniform 300;
    }
    rightWall
    {
        type            calculated;
        value           uniform 300;
    }
    bottomWall
    {
        type            calculated;
        value           uniform 300;
    }
    defaultFaces
    {
        type            empty;
    }
}


// ************************************************************************* //
