/*--------------------------------*- C++ -*----------------------------------*\
| =========                 |                                                 |
| \\      /  F ield         | OpenFOAM: The Open Source CFD Toolbox           |
|  \\    /   O peration     | Version:  v1606+                                |
|   \\  /    A nd           | Web:      www.OpenFOAM.com                      |
|    \\/     M anipulation  |                                                 |
\*---------------------------------------------------------------------------*/
FoamFile
{
    version     2.0;
    format      ascii;
    class       volScalarField;
    object      T;
}
// * * * * * * * * * * * * * * * * * * * * * * * * * * * * * * * * * * * * * //

dimensions      [0 0 0 1 0 0 0];

internalField   uniform 0;

boundaryField
{
    adiabatic
    {
        type              fixedGradient;
        gradient          uniform 0.0;
    }

    tw1
    {
        type            fixedValue;
        value           uniform 400;
    }

    tw2
    {
        type            fixedValue;
        value           uniform 500;
    }

    convRad
    {
        type            radConv;
        kappa           lookup;
        kappaName       DT;
        value           uniform 0;
        QrIncident      uniform 0;
    }
}

// ************************************************************************* //
