/*--------------------------------*- C++ -*----------------------------------*\
| =========                 |                                                 |
| \\      /  F ield         | OpenFOAM: The Open Source CFD Toolbox           |
|  \\    /   O peration     | Version:  v1606+                                |
|   \\  /    A nd           | Web:      www.OpenFOAM.com                      |
|    \\/     M anipulation  |                                                 |
\*---------------------------------------------------------------------------*/
FoamFile
{
    version     2.0;
    format      ascii;
    class       dictionary;
    object      blockMeshDict;
}
// * * * * * * * * * * * * * * * * * * * * * * * * * * * * * * * * * * * * * //

convertToMeters 1;

vertices
(
    (0 0 -0.1) // point 0
    (0.5 0 -0.1) // point 1
    (1.4 0 -0.1) // point 2
    (2 0 -0.1) // point 3
    (3 0 -0.1) // point 4
    (3 0.4 -0.1) // point 5
    (3 1.4 -0.1) // point 6
    (3 2.4 -0.1) // point 7
    (3 3 -0.1) // point 8
    (2 3 -0.1) // point 9
    (1.4 3 -0.1) // point 10
    (0.5 3 -0.1) // point 11
    (0 3 -0.1) // point 12
    (0 2.4 -0.1) // point 13
    (0 0.8 -0.1) // point 14
    (0 0.4 -0.1) // point 15
    (0.5 0.4 -0.1) // point 16
    (1.4 0.4 -0.1) // point 17
    (2 0.4 -0.1) // point 18
    (0.5 0.8 -0.1) // point 19
    (1.4 0.8 -0.1) // point 20
    (2 0.8 -0.1) // point 21
    (1.4 1.4 -0.1) // point 22
    (2 1.4 -0.1) // point 23
    (0.5 2.4 -0.1) // point 24
    (1.4 2.4 -0.1) // point 25
    (2 2.4 -0.1) // point 26

    (0 0 0.1) // point 0 -> Point 27
    (0.5 0 0.1) // point 1 -> Point 28
    (1.4 0 0.1) // point 2 -> Point 29
    (2 0 0.1) // point 3 -> Point 30
    (3 0 0.1) // point 4 -> Point 31
    (3 0.4 0.1) // point 5 -> Point 32
    (3 1.4 0.1) // point 6 -> Point 33
    (3 2.4 0.1) // point 7 -> Point 34
    (3 3 0.1) // point 8 -> Point 35
    (2 3 0.1) // point 9 -> Point 36
    (1.4 3 0.1) // point 10 -> Point 37
    (0.5 3 0.1) // point 11 -> Point 38
    (0 3 0.1) // point 12 -> Point 39
    (0 2.4 0.1) // point 13 -> Point 40
    (0 0.8 0.1) // point 14 -> Point 41
    (0 0.4 0.1) // point 15 -> Point 42
    (0.5 0.4 0.1) // point 16 -> Point 43
    (1.4 0.4 0.1) // point 17 -> Point 44
    (2 0.4 0.1) // point 18 -> Point 45
    (0.5 0.8 0.1) // point 19 -> Point 46
    (1.4 0.8 0.1) // point 20 -> Point 47
    (2 0.8 0.1) // point 21 -> Point 48
    (1.4 1.4 0.1) // point 22 -> Point 49
    (2 1.4 0.1) // point 23 -> Point 50
    (0.5 2.4 0.1) // point 24 -> Point 51
    (1.4 2.4 0.1) // point 25 -> Point 52
    (2 2.4 0.1) // point 26 -> Point 53

);

blocks
(
    hex (0 1 16 15 27 28 43 42) (20 20 1) simpleGrading (1 1 1)  // block i
    hex (1 2 17 16 28 29 44 43) (20 20 1) simpleGrading (1 1 1)  // block ii
    hex (2 3 18 17 29 30 45 44) (20 20 1) simpleGrading (1 1 1)  // block iii
    hex (3 4 5 18 30 31 32 45) (20 20 1) simpleGrading (1 1 1)  // block iv
    hex (15 16 19 14 42 43 46 41) (20 20 1) simpleGrading (1 1 1)  // block v
    hex (16 17 20 19 43 44 47 46) (20 20 1) simpleGrading (1 1 1)  // block vi
    hex (17 18 21 20 44 45 48 47) (20 20 1) simpleGrading (1 1 1)  // block vii
    hex (20 21 23 22 47 48 50 49) (20 20 1) simpleGrading (1 1 1)  // block viii
    hex (22 23 26 25 49 50 53 52) (20 20 1) simpleGrading (1 1 1)  // block ix
    hex (23 6 7 26 50 33 34 53) (20 20 1) simpleGrading (1 1 1)  // block x
    hex (26 7 8 9 53 34 35 36) (20 20 1) simpleGrading (1 1 1)  // block xi
    hex (25 26 9 10 52 53 36 37) (20 20 1) simpleGrading (1 1 1)  // block xii
    hex (24 25 10 11 51 52 37 38) (20 20 1) simpleGrading (1 1 1)  // block xiii
    hex (13 24 11 12 40 51 38 39) (20 20 1) simpleGrading (1 1 1)  // block xiv
    hex (14 19 24 13 41 46 51 40) (20 20 1) simpleGrading (1 1 1)  // block xv

);

edges
(
);

boundary
(
    adiabatic
    {
        type wall;
        faces
        (
            (15 0 27 42)
            (14 15 42 41)
            (13 14 41 40)
            (12 13 40 39)
            (11 12 39 38)
            (10 11 38 37)
            (9 10 37 36)
            (8 9 36 35)
        );
    }
    tw1
    {
        type wall;
        faces
        (
            (19 24 51 46)
            (20 19 46 47)
            (22 20 47 49)
            (25 22 52 49)
            (24 25 52 51)
        );
    }
    tw2
    {
        type wall;
        faces
        (
            (4 5 32 31)
            (5 18 45 32)
            (18 21 48 45)
            (21 23 50 48)
            (23 6 33 50)
            (6 7 34 33)
            (7 8 35 34)
        );
    }
    convRad
    {
        type wall;
        faces
        (
            (0 1 28 27)
            (1 2 29 28)
            (2 3 30 29)
            (3 4 31 30)
        );
    }
);

mergePatchPairs
(
);

// ************************************************************************* //
