/*--------------------------------*- C++ -*----------------------------------*\
| =========                 |                                                 |
| \\      /  F ield         | OpenFOAM: The Open Source CFD Toolbox           |
|  \\    /   O peration     | Version:  3.0.x                                 |
|   \\  /    A nd           | Web:      www.OpenFOAM.org                      |
|    \\/     M anipulation  |                                                 |
|*---------------------------------------------------------------------------*|
|* OpenFOAM for Windows 16.10 (v1)                                           *|
|* Built by CFD Support, www.cfdsupport.com (based on Symscape).             *|
\*---------------------------------------------------------------------------*/
FoamFile
{
    version     2.0;
    format      ascii;
    class       polyBoundaryMesh;
    location    "constant/polyMesh";
    object      boundary;
}
// * * * * * * * * * * * * * * * * * * * * * * * * * * * * * * * * * * * * * //

5
(
    adiabatic
    {
        type            wall;
        inGroups        1(wall);
        nFaces          160;
        startFace       11760;
    }
    tw1
    {
        type            wall;
        inGroups        1(wall);
        nFaces          100;
        startFace       11920;
    }
    tw2
    {
        type            wall;
        inGroups        1(wall);
        nFaces          140;
        startFace       12020;
    }
    convRad
    {
        type            wall;
        inGroups        1(wall);
        nFaces          80;
        startFace       12160;
    }
    defaultFaces
    {
        type            empty;
        inGroups        1(empty);
        nFaces          12000;
        startFace       12240;
    }
)

// ************************************************************************* //
