/*--------------------------------*- C++ -*----------------------------------*\
| =========                 |                                                 |
| \\      /  F ield         | OpenFOAM: The Open Source CFD Toolbox           |
|  \\    /   O peration     | Version:  3.0.x                                 |
|   \\  /    A nd           | Web:      www.OpenFOAM.org                      |
|    \\/     M anipulation  |                                                 |
\*---------------------------------------------------------------------------*/
FoamFile
{
    version     2.0;
    format      ascii;
    class       dictionary;
    object      changeDictionaryDict;
}
// * * * * * * * * * * * * * * * * * * * * * * * * * * * * * * * * * * * * * //

dictionaryReplacement
{
    T
    {
        boundaryField
        {
		topWall
		{
		type			fixedValue;
		value			uniform 293;
		}
		rightWall
            {
                type		externalWallHeatFluxTemperature;
                kappa           solidThermo;
		Ta	uniform 278;
		h	uniform 20;
                kappaName       kappa;
                value           uniform 5;
            }
            defaultFaces
            {
            type	empty;
            }

            "Shaded_to_.*"
            {
                type            compressible::turbulentTemperatureCoupledBaffleMixed;
                Tnbr            T;
                kappa           solidThermo;
                kappaName       kappa;
                thicknessLayers	();
                kappaLayers	();
                value           uniform 0;
            }
        }
    }
}

// ************************************************************************* //
